case213_20200302.m
function mpc = case213

%   MATPOWER

%% MATPOWER Case Format : Version 2
mpc.version = '2';

%%-----  Power Flow Data  -----%%
%% system MVA base
mpc.baseMVA = 100;

%% bus data
%	bus_i	type	Pd	Qd	Gs	Bs	area	Vm	Va	baseKV	zone	Vmax	Vmin
mpc.bus = [
1	3	207.50777	0	0	0	1	1	0	788	1	1.1	0.9
2	1	207.50777	0	0	0	1	1	0	788	1	1.1	0.9
3	1	207.50777	0	0	0	1	1	0	788	1	1.1	0.9
4	1	207.50777	0	0	0	1	1	0	788	1	1.1	0.9
5	1	207.50777	0	0	0	1	1	0	788	1	1.1	0.9
6	2	0.00000	0	0	0	1	1	0	788	1	1.1	0.9
7	1	124.50466	0	0	0	1	1	0	788	1	1.1	0.9
8	2	0.00000	0	0	0	1	1	0	788	1	1.1	0.9
9	1	103.75388	0	0	0	1	1	0	345	1	1.1	0.9
10	1	2488.36398	0	0	0	1	1	0	345	1	1.1	0.9
11	2	0.00000	0	0	0	1	1	0	345	1	1.1	0.9
12	1	124.50466	0	0	0	1	1	0	788	1	1.1	0.9
13	2	0.00000	0	0	0	1	1	0	788	1	1.1	0.9
14	2	0.00000	0	0	0	1	1	0	788	1	1.1	0.9
15	1	0.00000	0	0	0	1	1	0	345	1	1.1	0.9
16	1	0.00000	0	0	0	1	1	0	345	1	1.1	0.9
17	2	0.00000	0	0	0	1	1	0	788	1	1.1	0.9
18	1	79.54464	0	0	0	1	1	0	788	1	1.1	0.9
19	2	0.00000	0	0	0	1	1	0	788	1	1.1	0.9
20	2	489.37249	0	0	0	1	1	0	345	1	1.1	0.9
21	1	103.75388	0	0	0	1	1	0	345	1	1.1	0.9
22	2	478.99710	0	0	0	1	1	0	345	1	1.1	0.9
23	2	0.00000	0	0	0	1	1	0	788	1	1.1	0.9
24	1	2382.88086	0	0	0	1	1	0	345	1	1.1	0.9
25	1	389.07706	0	0	0	1	1	0	345	1	1.1	0.9
26	2	864.61570	0	0	0	1	1	0	788	1	1.1	0.9
27	2	1417.96974	0	0	0	1	1	0	788	1	1.1	0.9
28	2	62.25233	0	0	0	1	1	0	788	1	1.1	0.9
29	2	0.00000	0	0	0	1	1	0	788	1	1.1	0.9
30	2	0.00000	0	0	0	1	1	0	788	1	1.1	0.9
31	1	145.25544	0	0	0	1	1	0	788	1	1.1	0.9
32	1	62.25233	0	0	0	1	1	0	788	1	1.1	0.9
33	2	1462.92976	0	0	0	1	1	0	788	1	1.1	0.9
34	1	1569.66277	0	0	0	1	1	0	788	1	1.1	0.9
35	1	0.00000	0	0	0	1	1	0	788	1	1.1	0.9
36	1	4604.94321	0	0	0	1	1	0	788	1	1.1	0.9
37	2	0.00000	0	0	0	1	1	0	345	1	1.1	0.9
38	2	484.18479	0	0	0	1	1	0	345	1	1.1	0.9
39	2	0.00000	0	0	0	1	1	0	345	1	1.1	0.9
40	2	4572.08781	0	0	0	1	1	0	345	1	1.1	0.9
41	2	1390.30204	0	0	0	1	1	0	345	1	1.1	0.9
												
42	1	55.25524	0	0	0	1	1	0	788	2	1.1	0.9
43	1	55.25524	0	0	0	1	1	0	788	2	1.1	0.9
44	2	1964.63067	0	0	0	1	1	0	788	2	1.1	0.9
45	1	2072.07141	0	0	0	1	1	0	788	2	1.1	0.9
46	2	0.00000	0	0	0	1	1	0	788	2	1.1	0.9
47	1	110.51048	0	0	0	1	1	0	788	2	1.1	0.9
48	1	223.16977	0	0	0	1	1	0	345	2	1.1	0.9
49	2	2072.07141	0	0	0	1	1	0	345	2	1.1	0.9
50	2	0.00000	0	0	0	1	1	0	788	2	1.1	0.9
51	2	3752.75156	0	0	0	1	1	0	788	2	1.1	0.9
52	1	0.00000	0	0	0	1	1	0	345	2	1.1	0.9
53	2	0.00000	0	0	0	1	1	0	345	2	1.1	0.9
54	2	987.68737	0	0	0	1	1	0	345	2	1.1	0.9
55	2	0.00000	0	0	0	1	1	0	345	2	1.1	0.9
56	2	0.00000	0	0	0	1	1	0	345	2	1.1	0.9
57	2	0.00000	0	0	0	1	1	0	788	2	1.1	0.9
58	2	0.00000	0	0	0	1	1	0	788	2	1.1	0.9
59	2	429.76296	0	0	0	1	1	0	788	2	1.1	0.9
60	2	0.00000	0	0	0	1	1	0	345	2	1.1	0.9
61	2	613.94709	0	0	0	1	1	0	345	2	1.1	0.9
62	2	0.00000	0	0	0	1	1	0	345	2	1.1	0.9
63	2	0.00000	0	0	0	1	1	0	345	2	1.1	0.9
64	2	0.00000	0	0	0	1	1	0	345	2	1.1	0.9
65	2	0.00000	0	0	0	1	1	0	788	2	1.1	0.9
66	1	0.00000	0	0	0	1	1	0	788	2	1.1	0.9
67	2	18.41841	0	0	0	1	1	0	788	2	1.1	0.9
68	2	0.00000	0	0	0	1	1	0	345	2	1.1	0.9
69	2	0.00000	0	0	0	1	1	0	345	2	1.1	0.9
70	2	0.00000	0	0	0	1	1	0	345	2	1.1	0.9
71	2	0.00000	0	0	0	1	1	0	345	2	1.1	0.9
72	2	0.00000	0	0	0	1	1	0	788	2	1.1	0.9
73	2	0.00000	0	0	0	1	1	0	345	2	1.1	0.9
74	2	0.00000	0	0	0	1	1	0	345	2	1.1	0.9
75	2	0.00000	0	0	0	1	1	0	345	2	1.1	0.9
76	2	0.00000	0	0	0	1	1	0	345	2	1.1	0.9
77	2	0.00000	0	0	0	1	1	0	345	2	1.1	0.9
78	2	0.00000	0	0	0	1	1	0	345	2	1.1	0.9
79	2	0.00000	0	0	0	1	1	0	345	2	1.1	0.9
80	2	419.01889	0	0	0	1	1	0	345	2	1.1	0.9
81	2	0.00000	0	0	0	1	1	0	788	2	1.1	0.9
82	2	0.00000	0	0	0	1	1	0	345	2	1.1	0.9
83	2	0.00000	0	0	0	1	1	0	788	2	1.1	0.9
84	2	613.94709	0	0	0	1	1	0	345	2	1.1	0.9
85	2	2309.97591	0	0	0	1	1	0	345	2	1.1	0.9
86	1	1565.56507	0	0	0	1	1	0	345	2	1.1	0.9
87	1	1818.81824	0	0	0	1	1	0	345	2	1.1	0.9
88	2	415.94915	0	0	0	1	1	0	345	2	1.1	0.9
89	2	0.00000	0	0	0	1	1	0	345	2	1.1	0.9
90	1	1375.24147	0	0	0	1	1	0	345	2	1.1	0.9
91	1	85.95259	0	0	0	1	1	0	345	2	1.1	0.9
												
92	2	1204.97352	0	0	0	1	1	0	788	3	1.1	0.9
93	2	926.90270	0	0	0	1	1	0	788	3	1.1	0.9
94	1	0.00000	0	0	0	1	1	0	788	3	1.1	0.9
95	1	0.00000	0	0	0	1	1	0	345	3	1.1	0.9
96	2	0.00000	0	0	0	1	1	0	345	3	1.1	0.9
97	2	0.00000	0	0	0	1	1	0	788	3	1.1	0.9
98	2	0.00000	0	0	0	1	1	0	788	3	1.1	0.9
99	1	2169.53164	0	0	0	1	1	0	788	3	1.1	0.9
100	2	2078.77242	0	0	0	1	1	0	788	3	1.1	0.9
101	2	0.00000	0	0	0	1	1	0	345	3	1.1	0.9
102	2	0.00000	0	0	0	1	1	0	345	3	1.1	0.9
103	2	0.00000	0	0	0	1	1	0	345	3	1.1	0.9
104	2	0.00000	0	0	0	1	1	0	345	3	1.1	0.9
105	2	0.00000	0	0	0	1	1	0	345	3	1.1	0.9
106	2	0.00000	0	0	0	1	1	0	788	3	1.1	0.9
107	2	0.00000	0	0	0	1	1	0	788	3	1.1	0.9
108	1	86.89713	0	0	0	1	1	0	345	3	1.1	0.9
109	2	0.00000	0	0	0	1	1	0	115	3	1.1	0.9
110	2	0.00000	0	0	0	1	1	0	345	3	1.1	0.9
111	1	0.00000	0	0	0	1	1	0	345	3	1.1	0.9
112	2	0.00000	0	0	0	1	1	0	345	3	1.1	0.9
113	2	0.00000	0	0	0	1	1	0	788	3	1.1	0.9
114	2	0.00000	0	0	0	1	1	0	115	3	1.1	0.9
115	2	0.00000	0	0	0	1	1	0	115	3	1.1	0.9
116	2	0.00000	0	0	0	1	1	0	345	3	1.1	0.9
117	2	0.00000	0	0	0	1	1	0	115	3	1.1	0.9
118	2	0.00000	0	0	0	1	1	0	115	3	1.1	0.9
119	2	0.00000	0	0	0	1	1	0	345	3	1.1	0.9
120	2	0.00000	0	0	0	1	1	0	345	3	1.1	0.9
121	2	0.00000	0	0	0	1	1	0	345	3	1.1	0.9
122	2	0.00000	0	0	0	1	1	0	115	3	1.1	0.9
123	2	0.00000	0	0	0	1	1	0	345	3	1.1	0.9
124	2	0.00000	0	0	0	1	1	0	345	3	1.1	0.9
125	2	0.00000	0	0	0	1	1	0	788	3	1.1	0.9
126	1	0.00000	0	0	0	1	1	0	788	3	1.1	0.9
127	1	0.00000	0	0	0	1	1	0	788	3	1.1	0.9
128	2	62.75904	0	0	0	1	1	0	788	3	1.1	0.9
129	2	1484.00985	0	0	0	1	1	0	345	3	1.1	0.9
130	2	0.00000	0	0	0	1	1	0	345	3	1.1	0.9
131	1	0.00000	0	0	0	1	1	0	345	3	1.1	0.9
132	2	816.83301	0	0	0	1	1	0	115	3	1.1	0.9
133	2	231.72568	0	0	0	1	1	0	115	3	1.1	0.9
134	2	147.72512	0	0	0	1	1	0	115	3	1.1	0.9
135	1	1179.86990	0	0	0	1	1	0	115	3	1.1	0.9
136	2	0.00000	0	0	0	1	1	0	345	3	1.1	0.9
137	2	0.00000	0	0	0	1	1	0	345	3	1.1	0.9
												
138	1	97.90678	0	0	0	1	1	0	525	4	1.1	0.9
139	1	97.90678	0	0	0	1	1	0	525	4	1.1	0.9
140	1	97.90678	0	0	0	1	1	0	525	4	1.1	0.9
141	1	97.90678	0	0	0	1	1	0	525	4	1.1	0.9
142	2	0.00000	0	0	0	1	1	0	788	4	1.1	0.9
143	2	1231.99369	0	0	0	1	1	0	788	4	1.1	0.9
144	1	1373.95852	0	0	0	1	1	0	345	4	1.1	0.9
145	1	195.81357	0	0	0	1	1	0	788	4	1.1	0.9
146	1	117.48814	0	0	0	1	1	0	788	4	1.1	0.9
147	2	0.00000	0	0	0	1	1	0	788	4	1.1	0.9
148	1	117.48814	0	0	0	1	1	0	788	4	1.1	0.9
149	1	117.48814	0	0	0	1	1	0	788	4	1.1	0.9
150	1	117.48814	0	0	0	1	1	0	788	4	1.1	0.9
151	1	195.81357	0	0	0	1	1	0	788	4	1.1	0.9
152	1	117.48814	0	0	0	1	1	0	788	4	1.1	0.9
153	1	195.81357	0	0	0	1	1	0	788	4	1.1	0.9
154	1	848.52545	0	0	0	1	1	0	788	4	1.1	0.9
155	2	463.42544	0	0	0	1	1	0	788	4	1.1	0.9
156	2	1620.35726	0	0	0	1	1	0	788	4	1.1	0.9
157	1	117.48814	0	0	0	1	1	0	788	4	1.1	0.9
158	2	3981.54252	0	0	0	1	1	0	788	4	1.1	0.9
159	2	0.00000	0	0	0	1	1	0	788	4	1.1	0.9
160	1	234.97628	0	0	0	1	1	0	788	4	1.1	0.9
161	2	818.66389	0	0	0	1	1	0	788	4	1.1	0.9
162	2	0.00000	0	0	0	1	1	0	525	4	1.1	0.9
163	2	2842.56027	0	0	0	1	1	0	345	4	1.1	0.9
												
164	2	0.00000	0	0	0	1	1	0	788	5	1.1	0.9
165	2	0.00000	0	0	0	1	1	0	230	5	1.1	0.9
166	2	0.00000	0	0	0	1	1	0	115	5	1.1	0.9
167	2	0.00000	0	0	0	1	1	0	115	5	1.1	0.9
168	2	0.00000	0	0	0	1	1	0	115	5	1.1	0.9
169	2	0.00000	0	0	0	1	1	0	230	5	1.1	0.9
170	2	0.00000	0	0	0	1	1	0	230	5	1.1	0.9
171	2	0.00000	0	0	0	1	1	0	788	5	1.1	0.9
172	1	0.00000	0	0	0	1	1	0	525	5	1.1	0.9
173	1	0.00000	0	0	0	1	1	0	525	5	1.1	0.9
174	1	0.00000	0	0	0	1	1	0	525	5	1.1	0.9
175	1	0.00000	0	0	0	1	1	0	525	5	1.1	0.9
176	1	0.00000	0	0	0	1	1	0	788	5	1.1	0.9
177	2	0.00000	0	0	0	1	1	0	788	5	1.1	0.9
178	2	0.00000	0	0	0	1	1	0	788	5	1.1	0.9
179	1	99.17805	0	0	0	1	1	0	788	5	1.1	0.9
180	1	0.00000	0	0	0	1	1	0	788	5	1.1	0.9
181	1	0.00000	0	0	0	1	1	0	788	5	1.1	0.9
182	1	4656.98148	0	0	0	1	1	0	788	5	1.1	0.9
183	1	274.64690	0	0	0	1	1	0	788	5	1.1	0.9
184	2	0.00000	0	0	0	1	1	0	788	5	1.1	0.9
185	1	274.64690	0	0	0	1	1	0	788	5	1.1	0.9
186	1	274.64690	0	0	0	1	1	0	788	5	1.1	0.9
187	1	274.64690	0	0	0	1	1	0	788	5	1.1	0.9
188	1	274.64690	0	0	0	1	1	0	788	5	1.1	0.9
189	1	274.64690	0	0	0	1	1	0	788	5	1.1	0.9
190	1	274.64690	0	0	0	1	1	0	788	5	1.1	0.9
191	2	0.00000	0	0	0	1	1	0	788	5	1.1	0.9
192	2	0.00000	0	0	0	1	1	0	788	5	1.1	0.9
193	2	0.00000	0	0	0	1	1	0	788	5	1.1	0.9
194	1	2879.22262	0	0	0	1	1	0	788	5	1.1	0.9
195	2	1277.87099	0	0	0	1	1	0	788	5	1.1	0.9
196	2	2554.02543	0	0	0	1	1	0	788	5	1.1	0.9
197	1	4386.72130	0	0	0	1	1	0	788	5	1.1	0.9
198	1	4884.51881	0	0	0	1	1	0	788	5	1.1	0.9
199	1	1453.33984	0	0	0	1	1	0	788	5	1.1	0.9
200	1	2214.34062	0	0	0	1	1	0	788	5	1.1	0.9
201	1	414.44980	0	0	0	1	1	0	788	5	1.1	0.9
202	2	1570.06477	0	0	0	1	1	0	788	5	1.1	0.9
203	2	2209.57245	0	0	0	1	1	0	788	5	1.1	0.9
204	1	886.88061	0	0	0	1	1	0	788	5	1.1	0.9
205	1	699.01450	0	0	0	1	1	0	788	5	1.1	0.9
206	1	667.54455	0	0	0	1	1	0	788	5	1.1	0.9
207	1	2670.17818	0	0	0	1	1	0	788	5	1.1	0.9
208	2	3038.28132	0	0	0	1	1	0	788	5	1.1	0.9
209	1	3108.46886	0	0	0	1	1	0	788	5	1.1	0.9
210	2	476.81753	0	0	0	1	1	0	788	5	1.1	0.9
211	2	0.00000	0	0	0	1	1	0	230	5	1.1	0.9
212	2	0.00000	0	0	0	1	1	0	115	5	1.1	0.9
213	2	0.00000	0	0	0	1	1	0	525	5	1.1	0.9
];

%% generator data
%	bus	Pg	Qg	Qmax	Qmin	Vg	mBase	status	Pmax	Pmin	Pc1	Pc2 Qc1min	Qc1max	Qc2min	Qc2max	ramp_agc	ramp_10	ramp_30	ramp_q	apf type(1-hydro,2-coal fired Thermal, 5-gas fired thermal)	Ramp_up(MW/min)	Ramp_down	min_up_time(h)	min_down_time	FOR	cost_start(M$)	cost_const(£¤M$/(MW*y))	cost_var($/MWh)  area	num
mpc.gen = [
1	0	0	0	0	1	100	1	1000	500	0	0	0	0	0	0	0	0	0	0	0	2	15	8	12	12	0.31773	0.14286	0.03000	35.71429	1	4
2	0	0	0	0	1	100	1	1000	500	0	0	0	0	0	0	0	0	0	0	0	2	15	8	12	12	0.32988	0.14286	0.03000	35.71429	1	4
3	0	0	0	0	1	100	1	1000	500	0	0	0	0	0	0	0	0	0	0	0	2	15	8	12	12	0.33321	0.14286	0.03000	35.71429	1	4
4	0	0	0	0	1	100	1	1000	500	0	0	0	0	0	0	0	0	0	0	0	2	15	8	12	12	0.33410	0.14286	0.03000	35.71429	1	2
5	0	0	0	0	1	100	1	1000	500	0	0	0	0	0	0	0	0	0	0	0	2	15	8	12	12	0.33280	0.14286	0.03000	35.71429	1	2
7	0	0	0	0	1	100	1	500	250	0	0	0	0	0	0	0	0	0	0	0	2	10	10	10	10	0.25603	0.07143	0.02143	35.71429	1	3
9	0	0	0	0	1	100	1	330	165	0	0	0	0	0	0	0	0	0	0	0	2	6.6	6.6	8	8	0.14494	0.04714	0.01286	57.14286	1	2
10	0	0	0	0	1	100	1	300	165	0	0	0	0	0	0	0	0	0	0	0	2	6	6	8	8	0.14223	0.04286	0.01286	60.00000	1	6
12	0	0	0	0	1	100	1	600	240	0	0	0	0	0	0	0	0	0	0	0	5	24	24	3	3	0.36078	0.02571	0.02529	54.28571	1	1
15	0	0	0	0	1	100	1	700	350	0	0	0	0	0	0	0	0	0	0	0	2	10.5	6	10	10	0.25976	0.10000	0.03000	35.71429	1	2
16	0	0	0	0	1	100	1	330	165	0	0	0	0	0	0	0	0	0	0	0	2	6.6	6.6	8	8	0.14605	0.04714	0.01286	57.14286	1	3
18	0	0	0	0	1	100	1	600	240	0	0	0	0	0	0	0	0	0	0	0	5	24	24	3	3	0.37931	0.02571	0.02529	54.28571	1	1
21	0	0	0	0	1	100	1	330	165	0	0	0	0	0	0	0	0	0	0	0	2	6.6	6.6	8	8	0.13499	0.04714	0.01286	57.14286	1	3
24	0	0	0	0	1	100	1	300	165	0	0	0	0	0	0	0	0	0	0	0	2	6	6	8	8	0.14517	0.04286	0.01286	60.00000	1	5
25	0	0	0	0	1	100	1	600	240	0	0	0	0	0	0	0	0	0	0	0	5	24	24	3	3	0.37741	0.02571	0.02529	54.28571	1	4
28	0	0	0	0	1	100	1	500	0	0	0	0	0	0	0	0	0	0	0	0	1	62.5	62.5	0	0	0.00515	0.00000	0.03857	0.00000	1	2
28	0	0	0	0	1	100	1	600	240	0	0	0	0	0	0	0	0	0	0	0	5	24	24	3	3	0.36287	0.02571	0.02529	54.28571	1	2
31	0	0	0	0	1	100	1	1000	500	0	0	0	0	0	0	0	0	0	0	0	2	15	8	12	12	0.32329	0.14286	0.03000	35.71429	1	8
32	0	0	0	0	1	100	1	600	300	0	0	0	0	0	0	0	0	0	0	0	2	12	12	10	10	0.26316	0.08571	0.02143	35.71429	1	2
34	0	0	0	0	1	100	1	500	0	0	0	0	0	0	0	0	0	0	0	0	1	62.5	62.5	0	0	0.00513	0.00000	0.03857	0.00000	1	2
35	0	0	0	0	1	100	1	600	240	0	0	0	0	0	0	0	0	0	0	0	5	24	24	3	3	0.38093	0.02571	0.02529	54.28571	1	2
36	0	0	0	0	1	100	1	500	0	0	0	0	0	0	0	0	0	0	0	0	1	62.5	62.5	0	0	0.00520	0.00000	0.03857	0.00000	1	4
42	0	0	0	0	1	100	1	600	300	0	0	0	0	0	0	0	0	0	0	0	2	12	12	10	10	0.25603	0.08571	0.02143	35.71429	2	2
43	0	0	0	0	1	100	1	600	300	0	0	0	0	0	0	0	0	0	0	0	2	12	12	10	10	0.26223	0.08571	0.02143	35.71429	2	2
44	0	0	0	0	1	100	1	500	0	0	0	0	0	0	0	0	0	0	0	0	1	62.5	62.5	0	0	0.00517	0.00000	0.03857	0.00000	2	3
44	0	0	0	0	1	100	1	300	165	0	0	0	0	0	0	0	0	0	0	0	2	6	6	8	8	0.13656	0.04286	0.01286	60.00000	2	4
45	0	0	0	0	1	100	1	300	165	0	0	0	0	0	0	0	0	0	0	0	2	6	6	8	8	0.14480	0.04286	0.01286	60.00000	2	4
47	0	0	0	0	1	100	1	600	240	0	0	0	0	0	0	0	0	0	0	0	5	24	24	3	3	0.37068	0.02571	0.02529	54.28571	2	2
48	0	0	0	0	1	100	1	330	165	0	0	0	0	0	0	0	0	0	0	0	2	6.6	6.6	8	8	0.13670	0.04714	0.01286	57.14286	2	7
52	0	0	0	0	1	100	1	300	165	0	0	0	0	0	0	0	0	0	0	0	2	6	6	8	8	0.14020	0.04286	0.01000	60.00000	2	1
53	0	0	0	0	1	100	1	500	0	0	0	0	0	0	0	0	0	0	0	0	1	62.5	62.5	0	0	0.00520	0.00000	0.03857	0.00000	2	5
53	0	0	0	0	1	100	1	300	150	0	0	0	0	0	0	0	0	0	0	0	2	6	6	8	8	0.13805	0.04286	0.01286	60.00000	2	2
59	0	0	0	0	1	100	1	500	0	0	0	0	0	0	0	0	0	0	0	0	1	62.5	62.5	0	0	0.00487	0.00000	0.03857	0.00000	2	4
59	0	0	0	0	1	100	1	300	165	0	0	0	0	0	0	0	0	0	0	0	2	6	6	8	8	0.13549	0.04286	0.01286	60.00000	2	3
66	0	0	0	0	1	100	1	1000	500	0	0	0	0	0	0	0	0	0	0	0	2	15	8	12	12	0.32557	0.14286	0.03000	35.71429	2	4
86	0	0	0	0	1	100	1	350	175	0	0	0	0	0	0	0	0	0	0	0	2	7	7	8	8	0.14125	0.05000	0.01286	57.14286	2	6
87	0	0	0	0	1	100	1	300	165	0	0	0	0	0	0	0	0	0	0	0	2	6	6	8	8	0.13736	0.04286	0.01286	60.00000	2	4
88	0	0	0	0	1	100	1	500	0	0	0	0	0	0	0	0	0	0	0	0	1	62.5	62.5	0	0	0.00532	0.00000	0.03857	0.00000	2	4
88	0	0	0	0	1	100	1	330	165	0	0	0	0	0	0	0	0	0	0	0	2	6.6	6.6	8	8	0.14336	0.04714	0.01286	57.14286	2	3
90	0	0	0	0	1	100	1	500	0	0	0	0	0	0	0	0	0	0	0	0	1	62.5	62.5	0	0	0.00456	0.00000	0.03857	0.00000	2	3
91	0	0	0	0	1	100	1	300	165	0	0	0	0	0	0	0	0	0	0	0	2	6	6	8	8	0.13576	0.04286	0.01286	60.00000	2	6
94	0	0	0	0	1	100	1	500	0	0	0	0	0	0	0	0	0	0	0	0	1	62.5	62.5	0	0	0.00521	0.00000	0.03857	0.00000	3	4
95	0	0	0	0	1	100	1	500	0	0	0	0	0	0	0	0	0	0	0	0	1	62.5	62.5	0	0	0.00516	0.00000	0.03857	0.00000	3	2
98	0	0	0	0	1	100	1	600	0	0	0	0	0	0	0	0	0	0	0	0	1	75	75	0	0	0.00488	0.00000	0.03857	0.00000	3	5
98	0	0	0	0	1	100	1	600	240	0	0	0	0	0	0	0	0	0	0	0	5	24	24	3	3	0.35979	0.02571	0.02529	54.28571	3	3
99	0	0	0	0	1	100	1	500	0	0	0	0	0	0	0	0	0	0	0	0	1	62.5	62.5	0	0	0.00518	0.00000	0.03857	0.00000	3	4
108	0	0	0	0	1	100	1	500	0	0	0	0	0	0	0	0	0	0	0	0	1	62.5	62.5	0	0	0.00458	0.00000	0.03857	0.00000	3	6
111	0	0	0	0	1	100	1	600	0	0	0	0	0	0	0	0	0	0	0	0	1	75	75	0	0	0.00489	0.00000	0.03857	0.00000	3	2
126	0	0	0	0	1	100	1	600	300	0	0	0	0	0	0	0	0	0	0	0	2	12	12	10	10	0.25014	0.08571	0.02143	35.71429	3	1
127	0	0	0	0	1	100	1	600	240	0	0	0	0	0	0	0	0	0	0	0	5	24	24	3	3	0.36172	0.02571	0.02529	54.28571	3	1
129	0	0	0	0	1	100	1	500	0	0	0	0	0	0	0	0	0	0	0	0	1	62.5	62.5	0	0	0.00472	0.00000	0.03857	0.00000	3	5
129	0	0	0	0	1	100	1	350	175	0	0	0	0	0	0	0	0	0	0	0	2	7	7	8	8	0.14346	0.05000	0.01286	57.14286	3	1
131	0	0	0	0	1	100	1	400	200	0	0	0	0	0	0	0	0	0	0	0	2	8	8	8	8	0.13511	0.05714	0.01286	57.14286	3	1
135	0	0	0	0	1	100	1	600	0	0	0	0	0	0	0	0	0	0	0	0	1	75	75	0	0	0.00510	0.00000	0.03857	0.00000	3	3
138	0	0	0	0	1	100	1	1000	500	0	0	0	0	0	0	0	0	0	0	0	2	15	8	12	12	0.31870	0.14286	0.03000	35.71429	4	2
139	0	0	0	0	1	100	1	1000	500	0	0	0	0	0	0	0	0	0	0	0	2	15	8	12	12	0.32038	0.14286	0.03000	35.71429	4	1
140	0	0	0	0	1	100	1	1000	500	0	0	0	0	0	0	0	0	0	0	0	2	15	8	12	12	0.32389	0.14286	0.03000	35.71429	4	2
141	0	0	0	0	1	100	1	1000	500	0	0	0	0	0	0	0	0	0	0	0	2	15	8	12	12	0.32123	0.14286	0.03000	35.71429	4	2
144	0	0	0	0	1	100	1	600	240	0	0	0	0	0	0	0	0	0	0	0	5	24	24	3	3	0.38559	0.02571	0.02529	54.28571	4	3
145	0	0	0	0	1	100	1	1000	500	0	0	0	0	0	0	0	0	0	0	0	2	15	8	12	12	0.32865	0.14286	0.03000	35.71429	4	2
146	0	0	0	0	1	100	1	600	300	0	0	0	0	0	0	0	0	0	0	0	2	12	12	10	10	0.25272	0.08571	0.02143	35.71429	4	2
148	0	0	0	0	1	100	1	600	240	0	0	0	0	0	0	0	0	0	0	0	5	24	24	3	3	0.38672	0.02571	0.02529	54.28571	4	2
149	0	0	0	0	1	100	1	600	300	0	0	0	0	0	0	0	0	0	0	0	2	12	12	10	10	0.25915	0.08571	0.02143	35.71429	4	2
150	0	0	0	0	1	100	1	600	300	0	0	0	0	0	0	0	0	0	0	0	2	12	12	10	10	0.25160	0.08571	0.02143	35.71429	4	2
151	0	0	0	0	1	100	1	1000	500	0	0	0	0	0	0	0	0	0	0	0	2	15	8	12	12	0.33926	0.14286	0.03000	35.71429	4	2
152	0	0	0	0	1	100	1	600	300	0	0	0	0	0	0	0	0	0	0	0	2	12	12	10	10	0.25368	0.08571	0.02143	35.71429	4	2
153	0	0	0	0	1	100	1	1000	500	0	0	0	0	0	0	0	0	0	0	0	2	15	8	12	12	0.31760	0.14286	0.03000	35.71429	4	2
154	0	0	0	0	1	100	1	600	300	0	0	0	0	0	0	0	0	0	0	0	2	12	12	10	10	0.25598	0.08571	0.02143	35.71429	4	2
157	0	0	0	0	1	100	1	600	240	0	0	0	0	0	0	0	0	0	0	0	5	24	24	3	3	0.36895	0.02571	0.02529	54.28571	4	2
158	0	0	0	0	1	100	1	400	0	0	0	0	0	0	0	0	0	0	0	0	1	50	50	0	0	0.00460	0.00000	0.03714	0.00000	4	1
158	0	0	0	0	1	100	1	300	165	0	0	0	0	0	0	0	0	0	0	0	2	6	6	8	8	0.13591	0.04286	0.01286	60.00000	4	5
160	0	0	0	0	1	100	1	600	300	0	0	0	0	0	0	0	0	0	0	0	2	12	12	10	10	0.26553	0.08571	0.02143	35.71429	4	3
172	0	0	0	0	1	100	1	600	300	0	0	0	0	0	0	0	0	0	0	0	2	12	12	10	10	0.26226	0.08571	0.02143	35.71429	5	2
173	0	0	0	0	1	100	1	600	300	0	0	0	0	0	0	0	0	0	0	0	2	12	12	10	10	0.25914	0.08571	0.02143	35.71429	5	7
174	0	0	0	0	1	100	1	600	240	0	0	0	0	0	0	0	0	0	0	0	5	24	24	3	3	0.37516	0.02571	0.02529	54.28571	5	2
175	0	0	0	0	1	100	1	600	300	0	0	0	0	0	0	0	0	0	0	0	2	12	12	10	10	0.25432	0.08571	0.02143	35.71429	5	3
176	0	0	0	0	1	100	1	300	165	0	0	0	0	0	0	0	0	0	0	0	2	6	6	8	8	0.13952	0.04286	0.01286	60.00000	5	2
179	0	0	0	0	1	100	1	600	300	0	0	0	0	0	0	0	0	0	0	0	2	12	12	10	10	0.25963	0.08571	0.02143	35.71429	5	3
180	0	0	0	0	1	100	1	600	240	0	0	0	0	0	0	0	0	0	0	0	5	24	24	3	3	0.37027	0.02571	0.02529	54.28571	5	2
181	0	0	0	0	1	100	1	600	300	0	0	0	0	0	0	0	0	0	0	0	2	12	12	10	10	0.25060	0.08571	0.02143	35.71429	5	2
182	0	0	0	0	1	100	1	330	165	0	0	0	0	0	0	0	0	0	0	0	2	6.6	6.6	8	8	0.13807	0.04714	0.01286	57.14286	5	10
183	0	0	0	0	1	100	1	600	300	0	0	0	0	0	0	0	0	0	0	0	2	12	12	10	10	0.26165	0.08571	0.02143	35.71429	5	3
185	0	0	0	0	1	100	1	600	300	0	0	0	0	0	0	0	0	0	0	0	2	12	12	10	10	0.26659	0.08571	0.02143	35.71429	5	3
186	0	0	0	0	1	100	1	600	300	0	0	0	0	0	0	0	0	0	0	0	2	12	12	10	10	0.25294	0.08571	0.02143	35.71429	5	4
187	0	0	0	0	1	100	1	600	300	0	0	0	0	0	0	0	0	0	0	0	2	12	12	10	10	0.26322	0.08571	0.02143	35.71429	5	4
188	0	0	0	0	1	100	1	600	300	0	0	0	0	0	0	0	0	0	0	0	2	12	12	10	10	0.26293	0.08571	0.02143	35.71429	5	4
189	0	0	0	0	1	100	1	600	240	0	0	0	0	0	0	0	0	0	0	0	5	24	24	3	3	0.37971	0.02571	0.02529	54.28571	5	3
190	0	0	0	0	1	100	1	600	240	0	0	0	0	0	0	0	0	0	0	0	5	24	24	3	3	0.36473	0.02571	0.02529	54.28571	5	3
194	0	0	0	0	1	100	1	600	240	0	0	0	0	0	0	0	0	0	0	0	5	24	24	3	3	0.38396	0.02571	0.02529	54.28571	5	7
196	0	0	0	0	1	100	1	500	0	0	0	0	0	0	0	0	0	0	0	0	1	62.5	62.5	0	0	0.00464	0.00000	0.03857	0.00000	5	4
196	0	0	0	0	1	100	1	300	165	0	0	0	0	0	0	0	0	0	0	0	2	6	6	8	8	0.14592	0.04286	0.01000	60.00000	5	8
197	0	0	0	0	1	100	1	300	165	0	0	0	0	0	0	0	0	0	0	0	2	6	6	8	8	0.14339	0.04286	0.01286	60.00000	5	8
198	0	0	0	0	1	100	1	300	165	0	0	0	0	0	0	0	0	0	0	0	2	6	6	8	8	0.14728	0.04286	0.01286	60.00000	5	11
199	0	0	0	0	1	100	1	300	165	0	0	0	0	0	0	0	0	0	0	0	2	6	6	8	8	0.14304	0.04286	0.01286	60.00000	5	4
200	0	0	0	0	1	100	1	330	165	0	0	0	0	0	0	0	0	0	0	0	2	6.6	6.6	8	8	0.14537	0.04714	0.01286	57.14286	5	6
201	0	0	0	0	1	100	1	300	165	0	0	0	0	0	0	0	0	0	0	0	2	6	6	8	8	0.13499	0.04286	0.01000	60.00000	5	3
202	0	0	0	0	1	100	1	500	0	0	0	0	0	0	0	0	0	0	0	0	1	62.5	62.5	0	0	0.00476	0.00000	0.03857	0.00000	5	8
202	0	0	0	0	1	100	1	330	165	0	0	0	0	0	0	0	0	0	0	0	2	6.6	6.6	8	8	0.13909	0.04714	0.01286	57.14286	5	4
203	0	0	0	0	1	100	1	500	0	0	0	0	0	0	0	0	0	0	0	0	1	62.5	62.5	0	0	0.00464	0.00000	0.03857	0.00000	5	4
203	0	0	0	0	1	100	1	350	175	0	0	0	0	0	0	0	0	0	0	0	2	7	7	8	8	0.13406	0.05000	0.01286	57.14286	5	3
204	0	0	0	0	1	100	1	200	110	0	0	0	0	0	0	0	0	0	0	0	2	4	4	8	8	0.14229	0.02857	0.01000	60.00000	5	1
205	0	0	0	0	1	100	1	350	175	0	0	0	0	0	0	0	0	0	0	0	2	7	7	8	8	0.13542	0.05000	0.01286	57.14286	5	3
206	0	0	0	0	1	100	1	300	165	0	0	0	0	0	0	0	0	0	0	0	2	6	6	8	8	0.14427	0.04286	0.01000	60.00000	5	2
207	0	0	0	0	1	100	1	330	165	0	0	0	0	0	0	0	0	0	0	0	2	6.6	6.6	8	8	0.13964	0.04714	0.01286	57.14286	5	7
208	0	0	0	0	1	100	1	500	0	0	0	0	0	0	0	0	0	0	0	0	1	62.5	62.5	0	0	0.00517	0.00000	0.03857	0.00000	5	5
208	0	0	0	0	1	100	1	330	165	0	0	0	0	0	0	0	0	0	0	0	2	6.6	6.6	8	8	0.13470	0.04714	0.01286	57.14286	5	2
209	0	0	0	0	1	100	1	330	165	0	0	0	0	0	0	0	0	0	0	0	2	6.6	6.6	8	8	0.14269	0.04714	0.01286	57.14286	5	6

];

%% renewable data
% bus	Area	type(3-pv,4-wind)	Vg	mBase	status	Pmax	Pmin	FOR	cost_const(M$/(MW*y))	cost_var(M$/(MWh*y))
mpc.RE = [
8	1	3	1	100	1	250	0	0	0.024285714	0
8	1	4	1	100	1	250	0	0	0.024285714	0
10	1	3	1	100	1	5200	0	0	0.024285714	0
10	1	4	1	100	1	1050	0	0	0.024285714	0
11	1	4	1	100	1	550	0	0	0.024285714	0
12	1	4	1	100	1	550	0	0	0.024285714	0
13	1	4	1	100	1	600	0	0	0.024285714	0
15	1	3	1	100	1	1000	0	0	0.024285714	0
15	1	4	1	100	1	850	0	0	0.024285714	0
22	1	3	1	100	1	250	0	0	0.024285714	0
22	1	4	1	100	1	1100	0	0	0.024285714	0
25	1	3	1	100	1	250	0	0	0.024285714	0
28	1	3	1	100	1	500	0	0	0.024285714	0
28	1	4	1	100	1	300	0	0	0.024285714	0
31	1	3	1	100	1	200	0	0	0.024285714	0
31	1	4	1	100	1	900	0	0	0.024285714	0
32	1	3	1	100	1	150	0	0	0.024285714	0
32	1	4	1	100	1	500	0	0	0.024285714	0
34	1	3	1	100	1	150	0	0	0.024285714	0
34	1	4	1	100	1	450	0	0	0.024285714	0
36	1	3	1	100	1	300	0	0	0.024285714	0
36	1	4	1	100	1	300	0	0	0.024285714	0
37	1	3	1	100	1	500	0	0	0.024285714	0
37	1	4	1	100	1	550	0	0	0.024285714	0
38	1	3	1	100	1	200	0	0	0.024285714	0
55	2	4	1	100	1	550	0	0	0.024285714	0
56	2	4	1	100	1	800	0	0	0.024285714	0
58	2	3	1	100	1	1300	0	0	0.024285714	0
60	2	3	1	100	1	1300	0	0	0.024285714	0
61	2	4	1	100	1	500	0	0	0.024285714	0
62	2	4	1	100	1	700	0	0	0.024285714	0
63	2	4	1	100	1	1000	0	0	0.024285714	0
68	2	4	1	100	1	1400	0	0	0.024285714	0
69	2	4	1	100	1	1600	0	0	0.024285714	0
70	2	4	1	100	1	1250	0	0	0.024285714	0
71	2	4	1	100	1	1250	0	0	0.024285714	0
73	2	4	1	100	1	1400	0	0	0.024285714	0
74	2	4	1	100	1	1100	0	0	0.024285714	0
75	2	4	1	100	1	1100	0	0	0.024285714	0
76	2	4	1	100	1	600	0	0	0.024285714	0
77	2	4	1	100	1	800	0	0	0.024285714	0
78	2	4	1	100	1	1100	0	0	0.024285714	0
79	2	4	1	100	1	950	0	0	0.024285714	0
80	2	3	1	100	1	2100	0	0	0.024285714	0
82	2	3	1	100	1	4100	0	0	0.024285714	0
88	2	3	1	100	1	1700	0	0	0.024285714	0
96	3	3	1	100	1	550	0	0	0.024285714	0
101	3	3	1	100	1	950	0	0	0.024285714	0
102	3	3	1	100	1	750	0	0	0.024285714	0
103	3	3	1	100	1	950	0	0	0.024285714	0
104	3	3	1	100	1	1400	0	0	0.024285714	0
105	3	3	1	100	1	550	0	0	0.024285714	0
109	3	3	1	100	1	600	0	0	0.024285714	0
110	3	4	1	100	1	1000	0	0	0.024285714	0
111	3	3	1	100	1	650	0	0	0.024285714	0
114	3	3	1	100	1	800	0	0	0.024285714	0
115	3	3	1	100	1	220	0	0	0.024285714	0
117	3	3	1	100	1	250	0	0	0.024285714	0
118	3	3	1	100	1	350	0	0	0.024285714	0
119	3	3	1	100	1	350	0	0	0.024285714	0
119	3	4	1	100	1	900	0	0	0.024285714	0
121	3	3	1	100	1	2350	0	0	0.024285714	0
122	3	3	1	100	1	850	0	0	0.024285714	0
122	3	4	1	100	1	400	0	0	0.024285714	0
123	3	3	1	100	1	350	0	0	0.024285714	0
123	3	4	1	100	1	400	0	0	0.024285714	0
144	4	3	1	100	1	1750	0	0	0.024285714	0
145	4	4	1	100	1	1250	0	0	0.024285714	0
148	4	3	1	100	1	1750	0	0	0.024285714	0
148	4	4	1	100	1	1250	0	0	0.024285714	0
149	4	4	1	100	1	1250	0	0	0.024285714	0
150	4	4	1	100	1	1250	0	0	0.024285714	0
152	4	3	1	100	1	1650	0	0	0.024285714	0
153	4	4	1	100	1	1250	0	0	0.024285714	0
154	4	3	1	100	1	1550	0	0	0.024285714	0
154	4	4	1	100	1	1250	0	0	0.024285714	0
155	4	4	1	100	1	1250	0	0	0.024285714	0
156	4	4	1	100	1	1750	0	0	0.024285714	0
157	4	3	1	100	1	1450	0	0	0.024285714	0
158	4	3	1	100	1	1450	0	0	0.024285714	0
158	4	4	1	100	1	400	0	0	0.024285714	0
161	4	4	1	100	1	1250	0	0	0.024285714	0
166	5	4	1	100	1	1450	0	0	0.024285714	0
167	5	4	1	100	1	1450	0	0	0.024285714	0
168	5	4	1	100	1	2450	0	0	0.024285714	0
169	5	4	1	100	1	2450	0	0	0.024285714	0
170	5	4	1	100	1	1450	0	0	0.024285714	0
176	5	3	1	100	1	950	0	0	0.024285714	0
176	5	4	1	100	1	1950	0	0	0.024285714	0
177	5	4	1	100	1	1050	0	0	0.024285714	0
195	5	3	1	100	1	950	0	0	0.024285714	0
197	5	3	1	100	1	1000	0	0	0.024285714	0
197	5	4	1	100	1	1050	0	0	0.024285714	0
199	5	3	1	100	1	950	0	0	0.024285714	0
199	5	4	1	100	1	1450	0	0	0.024285714	0
200	5	3	1	100	1	1000	0	0	0.024285714	0
200	5	4	1	100	1	1050	0	0	0.024285714	0
201	5	3	1	100	1	950	0	0	0.024285714	0
201	5	4	1	100	1	4000	0	0	0.024285714	0
202	5	4	1	100	1	1400	0	0	0.024285714	0
203	5	3	1	100	1	800	0	0	0.024285714	0
203	5	4	1	100	1	1400	0	0	0.024285714	0
204	5	3	1	100	1	950	0	0	0.024285714	0
206	5	3	1	100	1	1000	0	0	0.024285714	0
208	5	3	1	100	1	950	0	0	0.024285714	0
209	5	3	1	100	1	1000	0	0	0.024285714	0
209	5	4	1	100	1	1400	0	0	0.024285714	0
210	5	3	1	100	1	950	0	0	0.024285714	0

];
%% CSP data
%	bus	Pg	Qg	Qmax	Qmin	Vg	mBase	status	Pmax	Pmin	Pc1	Pc2
%	bus	Pg	Qg	Qmax	Qmin	Vg	mBase	status	Pmax	Pmin	Pc1	Pc2 Qc1min	Qc1max	Qc2min	Qc2max	ramp_agc	ramp_10	ramp_30	ramp_q	apf type(1-hydro,2-coal fired Thermal, 5-gas fired thermal)	Ramp_up(MW/min)	Ramp_down	min_up_time(h)	min_down_time	FOR	cost_start(M$)	cost_const(£¤M$/(MW*y))	cost_var($/MWh)  area	num
mpc.CSP = [
119	0	0	0	0	1	100	1	400	160	0	0	0	0	0	0	0	0	0	0	0	6	4	4	2	2	0.00000	0	0.05	0	3	1
123	0	0	0	0	1	100	1	400	160	0	0	0	0	0	0	0	0	0	0	0	6	4	4	2	2	0.00000	0	0.05	0	3	1
];

%% branch data
%	fbus	tbus	r	x	b	rateA	rateB	rateC	ratio	angle	status	angmin	angmax Idx(1:Tie Line,2:VRE integration System,3:Regional Transmission System)
mpc.branch = [
1	6	0.00007	0.00141	1.0985	4000	4000	4000	0	0	1	-360	360	3
1	2	0.00002	0.00034	0.8585	4000	4000	4000	0	0	1	-360	360	3
2	6	0.00012	0.00256	0.5201	4000	4000	4000	0	0	1	-360	360	3
2	6	0.00012	0.00256	0.5201	4000	4000	4000	0	0	1	-360	360	3
3	6	0.00008	0.0017	0.2411	4000	4000	4000	0	0	1	-360	360	3
3	4	0.00002	0.00043	0.1635	4000	4000	4000	0	0	1	-360	360	3
4	6	0.00008	0.0017	0.1885	4000	4000	4000	0	0	1	-360	360	3
4	5	0.00016	0.00341	0.2721	4000	4000	4000	0	0	1	-360	360	3
5	6	0.00002	0.00034	0.4404	4000	4000	4000	0	0	1	-360	360	3
6	8	0.00024	0.00511	0.4168	4000	4000	4000	0	0	1	-360	360	3
6	8	0.00024	0.00511	0.4168	4000	4000	4000	0	0	1	-360	360	3
6	8	0.00024	0.00511	0.4168	4000	4000	4000	0	0	1	-360	360	3
7	8	0.00006	0.00128	0.2001	4000	4000	4000	0	0	1	-360	360	3
8	14	0.00024	0.00511	0.2538	4000	4000	4000	0	0	1	-360	360	3
8	14	0.00024	0.00511	0.2538	4000	4000	4000	0	0	1	-360	360	3
9	37	0.00082	0.00487	1.0023	700	700	700	0	0	1	-360	360	2
9	37	0.00082	0.00487	1.0023	700	700	700	0	0	1	-360	360	2
9	10	0.00082	0.00487	1.0023	700	700	700	0	0	1	-360	360	2
9	10	0.00082	0.00487	1.0023	700	700	700	0	0	1	-360	360	2
10	37	0.0016	0.01094	0.6812	700	700	700	0	0	1	-360	360	2
10	11	0.00182	0.01103	0.6412	700	700	700	0	0	1	-360	360	2
11	37	0.0012	0.00707	0.4472	700	700	700	0	0	1	-360	360	2
11	37	0.0012	0.00707	0.4472	700	700	700	0	0	1	-360	360	2
12	14	0.00004	0.00085	0.6164	4000	4000	4000	0	0	1	-360	360	3
13	14	0.00243	0.01232	0.1746	4000	4000	4000	0	0	1	-360	360	3
14	17	0.0001	0.0016	1.0321	4000	4000	4000	0	0	1	-360	360	3
14	17	0.0001	0.0016	1.0321	4000	4000	4000	0	0	1	-360	360	3
15	38	0.0001	0.0017	0.5580	700	700	700	0	0	1	-360	360	2
15	38	0.0001	0.0017	0.5580	700	700	700	0	0	1	-360	360	2
16	38	0.0001	0.0017	0.5580	700	700	700	0	0	1	-360	360	3
16	38	0.0001	0.0017	0.5580	700	700	700	0	0	1	-360	360	3
37	16	0.00257	0.02025	0.9596	700	700	700	0	0	1	-360	360	3
17	19	0.0001	0.0016	1.0305	4000	4000	4000	0	0	1	-360	360	3
17	19	0.0001	0.0016	1.0305	4000	4000	4000	0	0	1	-360	360	3
14	23	0.0005	0.01152	0.3003	4000	4000	4000	0	0	1	-360	360	3
14	23	0.0005	0.01152	0.3003	4000	4000	4000	0	0	1	-360	360	3
37	20	0.004	0.025	1.0428	700	700	700	0	0	1	-360	360	2
37	20	0.004	0.025	1.0428	700	700	700	0	0	1	-360	360	2
20	21	0.00383	0.02796	0.6290	700	700	700	0	0	1	-360	360	2
21	22	0.0006	0.0037	0.7435	700	700	700	0	0	1	-360	360	2
21	22	0.0006	0.0037	0.7435	700	700	700	0	0	1	-360	360	2
22	39	0.00465	0.02765	0.6585	700	700	700	0	0	1	-360	360	2
22	39	0.00465	0.02765	0.6585	700	700	700	0	0	1	-360	360	2
19	23	0	0.001	0.5766	4000	4000	4000	0	0	1	-360	360	3
18	19	0.00001	0.00021	0.5493	4000	4000	4000	0	0	1	-360	360	3
18	19	0.00001	0.00021	0.5493	4000	4000	4000	0	0	1	-360	360	3
19	30	0.00035	0.00746	0.7511	4000	4000	4000	0	0	1	-360	360	3
19	30	0.00035	0.00746	0.7511	4000	4000	4000	0	0	1	-360	360	3
39	24	0.001	0.006	0.8562	700	700	700	0	0	1	-360	360	3
39	24	0.001	0.006	0.8562	700	700	700	0	0	1	-360	360	3
24	41	0.00003	0.00062	0.6428	700	700	700	0	0	1	-360	360	3
24	41	0.00003	0.00062	0.6428	700	700	700	0	0	1	-360	360	3
24	41	0.00003	0.00062	0.6428	700	700	700	0	0	1	-360	360	3
23	29	0.0003	0.00626	0.6902	4000	4000	4000	0	0	1	-360	360	3
23	29	0.0003	0.00626	0.6902	4000	4000	4000	0	0	1	-360	360	3
25	40	0.00257	0.03644	0.5478	700	700	700	0	0	1	-360	360	2
25	40	0.00257	0.03644	0.5478	700	700	700	0	0	1	-360	360	2
26	29	0.00016	0.00331	0.8680	4000	4000	4000	0	0	1	-360	360	3
26	29	0.00016	0.00331	0.8680	4000	4000	4000	0	0	1	-360	360	3
27	29	0.00489	0.02906	0.5769	4000	4000	4000	0	0	1	-360	360	3
27	29	0.00489	0.02906	0.5769	4000	4000	4000	0	0	1	-360	360	3
28	29	0.00007	0.00143	0.9143	4000	4000	4000	0	0	1	-360	360	3
29	30	0.0001	0.00213	0.8710	4000	4000	4000	0	0	1	-360	360	3
29	30	0.0001	0.00213	0.8710	4000	4000	4000	0	0	1	-360	360	3
30	31	0.0001	0.00213	0.8710	4000	4000	4000	0	0	1	-360	360	3
30	31	0.0001	0.00213	0.8710	4000	4000	4000	0	0	1	-360	360	3
30	33	0.00019	0.00409	0.9234	4000	4000	4000	0	0	1	-360	360	3
30	33	0.00019	0.00409	0.9234	4000	4000	4000	0	0	1	-360	360	3
32	33	0.00016	0.00372	0.2148	4000	4000	4000	0	0	1	-360	360	3
32	33	0.00016	0.00372	0.2148	4000	4000	4000	0	0	1	-360	360	3
33	34	0.00019	0.00405	0.7204	4000	4000	4000	0	0	1	-360	360	3
33	34	0.00019	0.00405	0.7204	4000	4000	4000	0	0	1	-360	360	3
34	36	0	0.0001	0.1529	4000	4000	4000	0	0	1	-360	360	3
34	36	0	0.0001	0.1529	4000	4000	4000	0	0	1	-360	360	3
29	36	0.00025	0.005	0.9759	4000	4000	4000	0	0	1	-360	360	3
29	36	0.00025	0.005	0.9759	4000	4000	4000	0	0	1	-360	360	3
34	35	0.00004	0.00079	1.0069	4000	4000	4000	0	0	1	-360	360	3
33	44	0.00035	0.0072	0.1820	4000	4000	4000	0	0	1	-360	360	1
33	44	0.00035	0.0072	0.1820	4000	4000	4000	0	0	1	-360	360	1
34	45	0.00044	0.00905	0.6252	4000	4000	4000	0	0	1	-360	360	1
34	45	0.00044	0.00905	0.6252	4000	4000	4000	0	0	1	-360	360	1
14	37	0.00003	0.00853	0.0000	2100	2100	2100	0	0	1	-360	360	2
17	38	0.00003	0.00853	0.0000	2100	2100	2100	0	0	1	-360	360	2
17	38	0.00003	0.00853	0.0000	2100	2100	2100	0	0	1	-360	360	2
23	39	0.00003	0.00853	0.0000	2100	2100	2100	0	0	1	-360	360	2
29	40	0.00003	0.00853	0.0000	2100	2100	2100	0	0	1	-360	360	2
29	40	0.00003	0.00853	0.0000	2100	2100	2100	0	0	1	-360	360	2
30	41	0.00003	0.00853	0.0000	2100	2100	2100	0	0	1	-360	360	3
													
42	44	0.00004	0.00079	0.2283	4000	4000	4000	0	0	1	-360	360	3
43	44	0.00003	0.00068	0.8047	4000	4000	4000	0	0	1	-360	360	3
43	44	0.00003	0.00068	0.8047	4000	4000	4000	0	0	1	-360	360	3
44	46	0.00055	0.0109	0.1588	4000	4000	4000	0	0	1	-360	360	3
44	46	0.00055	0.0109	0.1588	4000	4000	4000	0	0	1	-360	360	3
45	46	0.00036	0.00731	0.2601	4000	4000	4000	0	0	1	-360	360	3
45	46	0.00036	0.00731	0.2601	4000	4000	4000	0	0	1	-360	360	3
84	49	0.00158	0.0085	0.5569	700	700	700	0	0	1	-360	360	3
84	49	0.00158	0.0085	0.5569	700	700	700	0	0	1	-360	360	3
48	49	0.00258	0.01535	0.7483	700	700	700	0	0	1	-360	360	3
48	49	0.00258	0.01535	0.7483	700	700	700	0	0	1	-360	360	3
48	85	0.0006	0.004	1.0071	700	700	700	0	0	1	-360	360	3
48	85	0.0006	0.004	1.0071	700	700	700	0	0	1	-360	360	3
48	85	0.0006	0.004	1.0071	700	700	700	0	0	1	-360	360	3
46	50	0.0003	0.00639	0.2134	4000	4000	4000	0	0	1	-360	360	3
47	50	0.00015	0.00309	0.6428	4000	4000	4000	0	0	1	-360	360	3
50	51	0.00029	0.0001	0.2503	4000	4000	4000	0	0	1	-360	360	3
50	51	0.00029	0.0001	0.2503	4000	4000	4000	0	0	1	-360	360	3
51	57	0.00038	0.00828	0.1048	4000	4000	4000	0	0	1	-360	360	3
51	57	0.00038	0.00828	0.1048	4000	4000	4000	0	0	1	-360	360	3
52	54	0.00123	0.00731	0.9911	700	700	700	0	0	1	-360	360	3
52	54	0.00123	0.00731	0.9911	700	700	700	0	0	1	-360	360	3
53	54	0.00052	0.00408	1.1345	700	700	700	0	0	1	-360	360	3
53	54	0.00052	0.00408	1.1345	700	700	700	0	0	1	-360	360	3
54	86	0.0031	0.02	0.3850	700	700	700	0	0	1	-360	360	3
54	86	0.0031	0.02	0.3850	700	700	700	0	0	1	-360	360	3
55	56	0.00168	0.00999	0.6332	700	700	700	0	0	1	-360	360	2
55	56	0.00168	0.00999	0.6332	700	700	700	0	0	1	-360	360	2
56	86	0.00348	0.02071	0.9010	700	700	700	0	0	1	-360	360	2
56	86	0.00348	0.02071	0.9010	700	700	700	0	0	1	-360	360	2
58	59	0.00106	0.00839	0.7947	4000	4000	4000	0	0	1	-360	360	3
57	59	0.0003	0.00744	0.6428	4000	4000	4000	0	0	1	-360	360	3
57	65	0.00082	0.016	0.2796	4000	4000	4000	0	0	1	-360	360	3
57	65	0.00082	0.016	0.2796	4000	4000	4000	0	0	1	-360	360	3
60	61	0.00035	0.00251	0.7200	700	700	700	0	0	1	-360	360	2
60	87	0.00035	0.00251	0.7200	700	700	700	0	0	1	-360	360	2
61	62	0.00035	0.00251	0.7200	700	700	700	0	0	1	-360	360	2
62	64	0.00035	0.00251	0.7200	700	700	700	0	0	1	-360	360	2
87	88	0.00035	0.00251	0.7200	700	700	700	0	0	1	-360	360	2
87	88	0.00035	0.00251	0.7200	700	700	700	0	0	1	-360	360	2
63	64	0.00035	0.00251	0.7200	700	700	700	0	0	1	-360	360	2
64	88	0.001	0.007	0.6816	700	700	700	0	0	1	-360	360	2
64	88	0.001	0.007	0.6816	700	700	700	0	0	1	-360	360	2
65	72	0.00037	0.00913	0.4855	4000	4000	4000	0	0	1	-360	360	3
65	72	0.00037	0.00913	0.4855	4000	4000	4000	0	0	1	-360	360	3
66	67	0.00004	0.00089	0.7079	4000	4000	4000	0	0	1	-360	360	3
66	67	0.00004	0.00089	0.7079	4000	4000	4000	0	0	1	-360	360	3
67	72	0.00004	0.00085	0.5271	4000	4000	4000	0	0	1	-360	360	3
67	72	0.00004	0.00085	0.5271	4000	4000	4000	0	0	1	-360	360	3
67	72	0.00004	0.00085	0.5271	4000	4000	4000	0	0	1	-360	360	3
68	89	0.0015	0.00961	0.4152	700	700	700	0	0	1	-360	360	2
69	89	0.00122	0.01009	0.5215	700	700	700	0	0	1	-360	360	2
70	89	0.00148	0.00877	0.9750	700	700	700	0	0	1	-360	360	2
71	89	0.0018	0.01072	0.5238	700	700	700	0	0	1	-360	360	2
72	81	0.0001	0.00256	0.5097	4000	4000	4000	0	0	1	-360	360	3
72	81	0.0001	0.00256	0.5097	4000	4000	4000	0	0	1	-360	360	3
73	90	0.00167	0.01045	0.2473	700	700	700	0	0	1	-360	360	2
74	90	0.00035	0.00251	0.3731	700	700	700	0	0	1	-360	360	2
75	90	0.00139	0.01005	0.1912	700	700	700	0	0	1	-360	360	2
76	90	0.0016	0.0095	0.5509	700	700	700	0	0	1	-360	360	2
77	90	0.00156	0.0113	0.3701	700	700	700	0	0	1	-360	360	2
78	90	0.00156	0.0113	0.3701	700	700	700	0	0	1	-360	360	2
79	90	0.0011	0.00927	0.5461	700	700	700	0	0	1	-360	360	2
80	90	0.000164	0.000945	0.2252	700	700	700	0	0	1	-360	360	2
80	90	0.000164	0.000945	0.2252	700	700	700	0	0	1	-360	360	2
81	83	0.00034	0.00716	0.8417	4000	4000	4000	0	0	1	-360	360	3
81	83	0.00034	0.00716	0.8417	4000	4000	4000	0	0	1	-360	360	3
82	91	0.00053	0.00317	0.9243	700	700	700	0	0	1	-360	360	2
46	97	0.00029	0.00062	0.1778	4000	4000	4000	0	0	1	-360	360	1
46	97	0.00029	0.00062	0.1778	4000	4000	4000	0	0	1	-360	360	1
44	155	0.00025	0.00524	0.1036	4000	4000	4000	0	0	1	-360	360	1
44	155	0.00025	0.00524	0.1036	4000	4000	4000	0	0	1	-360	360	1
50	156	0.00033	0.00703	0.1014	4000	4000	4000	0	0	1	-360	360	1
50	156	0.00033	0.00703	0.1014	4000	4000	4000	0	0	1	-360	360	1
51	92	0.0002	0.00564	0.2496	4000	4000	4000	0	0	1	-360	360	1
51	92	0.0002	0.00564	0.2496	4000	4000	4000	0	0	1	-360	360	1
81	176	0.00082	0.01555	0.2835	4000	4000	4000	0	0	1	-360	360	1
81	176	0.00082	0.01555	0.2835	4000	4000	4000	0	0	1	-360	360	1
83	164	0.00057	0.01219	0.7288	4000	4000	4000	0	0	1	-360	360	1
83	164	0.00057	0.01219	0.7288	4000	4000	4000	0	0	1	-360	360	1
83	128	0.00066	0.01402	1.0863	4000	4000	4000	0	0	1	-360	360	1
83	128	0.00066	0.01402	1.0863	4000	4000	4000	0	0	1	-360	360	1
46	84	0.00004	0.00923	0.0000	1500	1500	1500	0	0	1	-360	360	3
46	84	0.00004	0.00923	0.0000	1500	1500	1500	0	0	1	-360	360	3
50	85	0.00004	0.00923	0.0000	1500	1500	1500	0	0	1	-360	360	3
57	86	0.00003	0.00853	0.0000	2100	2100	2100	0	0	1	-360	360	2
57	86	0.00003	0.00853	0.0000	2100	2100	2100	0	0	1	-360	360	2
65	88	0.00003	0.00853	0.0000	2100	2100	2100	0	0	1	-360	360	2
65	88	0.00003	0.00853	0.0000	2100	2100	2100	0	0	1	-360	360	2
72	89	0.00003	0.00853	0.0000	2100	2100	2100	0	0	1	-360	360	2
72	89	0.00003	0.00853	0.0000	2100	2100	2100	0	0	1	-360	360	2
72	89	0.00003	0.00853	0.0000	2100	2100	2100	0	0	1	-360	360	2
81	90	0.00003	0.00853	0.0000	2100	2100	2100	0	0	1	-360	360	2
81	90	0.00003	0.00853	0.0000	2100	2100	2100	0	0	1	-360	360	2
83	91	0.00003	0.00853	0.0000	2100	2100	2100	0	0	1	-360	360	2
													
92	93	0.00018	0.004	0.4948	4000	4000	4000	0	0	1	-360	360	3
92	93	0.00018	0.004	0.4948	4000	4000	4000	0	0	1	-360	360	3
93	94	0.00006	0.0011	0.3781	4000	4000	4000	0	0	1	-360	360	3
93	94	0.00006	0.0011	0.3781	4000	4000	4000	0	0	1	-360	360	3
92	99	0.00011	0.003	0.5581	4000	4000	4000	0	0	1	-360	360	3
92	99	0.00011	0.003	0.5581	4000	4000	4000	0	0	1	-360	360	3
95	129	0.00028	0.00169	0.1274	700	700	700	0	0	1	-360	360	3
96	129	0.00028	0.03681	1.1024	700	700	700	0	0	1	-360	360	2
96	129	0.00028	0.03681	1.1024	700	700	700	0	0	1	-360	360	2
97	98	0.00038	0.00764	1.1096	4000	4000	4000	0	0	1	-360	360	3
97	99	0.00043	0.00655	0.9005	4000	4000	4000	0	0	1	-360	360	3
98	99	0.00015	0.00316	0.1077	4000	4000	4000	0	0	1	-360	360	3
99	100	0.00008	0.0015	0.8140	4000	4000	4000	0	0	1	-360	360	3
99	100	0.00008	0.0015	0.8140	4000	4000	4000	0	0	1	-360	360	3
100	106	0.00032	0.00682	0.7774	4000	4000	4000	0	0	1	-360	360	3
100	106	0.00032	0.00682	0.7774	4000	4000	4000	0	0	1	-360	360	3
101	130	0.0003	0.0024	0.3290	700	700	700	0	0	1	-360	360	2
102	130	0.0003	0.0024	0.3290	700	700	700	0	0	1	-360	360	2
103	130	0.0003	0.0024	0.3290	700	700	700	0	0	1	-360	360	2
104	130	0.00082	0.00401	0.4894	700	700	700	0	0	1	-360	360	2
104	130	0.00082	0.00401	0.4894	700	700	700	0	0	1	-360	360	2
105	130	0.00028	0.03681	0.9992	700	700	700	0	0	1	-360	360	2
106	107	0.00002	0.00032	0.5226	4000	4000	4000	0	0	1	-360	360	3
106	107	0.00002	0.00032	0.5226	4000	4000	4000	0	0	1	-360	360	3
131	108	0.00126	0.00995	0.7391	700	700	700	0	0	1	-360	360	3
131	108	0.00126	0.00995	0.7391	700	700	700	0	0	1	-360	360	3
109	132	0.01803	0.0556	1.0546	200	200	200	0	0	1	-360	360	2
109	132	0.01803	0.0556	1.0546	200	200	200	0	0	1	-360	360	2
110	112	0.0004	0.0034	0.4492	700	700	700	0	0	1	-360	360	2
110	112	0.0004	0.0034	0.4492	700	700	700	0	0	1	-360	360	2
110	112	0.0004	0.0034	0.4492	700	700	700	0	0	1	-360	360	2
111	112	0.0026	0.025	1.0496	700	700	700	0	0	1	-360	360	2
111	112	0.0026	0.025	1.0496	700	700	700	0	0	1	-360	360	2
100	113	0.0007	0.0096	0.6590	4000	4000	4000	0	0	1	-360	360	3
100	113	0.0007	0.0096	0.6590	4000	4000	4000	0	0	1	-360	360	3
137	116	0.0056	0.0051	0.5240	700	700	700	0	0	1	-360	360	3
137	116	0.0056	0.0051	0.5240	700	700	700	0	0	1	-360	360	3
114	133	0.0062	0.0127	0.1512	200	200	200	0	0	1	-360	360	2
114	133	0.0062	0.0127	0.1512	200	200	200	0	0	1	-360	360	2
114	133	0.0062	0.0127	0.1512	200	200	200	0	0	1	-360	360	2
115	133	0.00348	0.00748	0.3536	200	200	200	0	0	1	-360	360	2
116	120	0.00459	0.04329	0.3553	700	700	700	0	0	1	-360	360	2
117	134	0.00109	0.00534	0.2619	200	200	200	0	0	1	-360	360	2
118	134	0.00512	0.01998	1.1042	200	200	200	0	0	1	-360	360	2
119	120	0.00003	0.0024	1.0824	700	700	700	0	0	1	-360	360	2
120	124	0.0032	0.02949	0.9597	700	700	700	0	0	1	-360	360	2
121	124	0.00082	0.00401	0.8647	700	700	700	0	0	1	-360	360	2
122	135	0.0033	0.0116	0.2846	200	200	200	0	0	1	-360	360	2
122	135	0.0033	0.0116	0.2846	200	200	200	0	0	1	-360	360	2
122	135	0.0033	0.0116	0.2846	200	200	200	0	0	1	-360	360	2
122	135	0.0033	0.0116	0.2846	200	200	200	0	0	1	-360	360	2
122	135	0.0033	0.0116	0.2846	200	200	200	0	0	1	-360	360	2
123	124	0.00406	0.01097	0.8346	700	700	700	0	0	1	-360	360	2
124	136	0	0.000298	0.7565	700	700	700	0	0	1	-360	360	2
124	136	0	0.000298	0.7565	700	700	700	0	0	1	-360	360	2
124	136	0	0.000298	0.7565	700	700	700	0	0	1	-360	360	2
113	125	0.00087	0.0104	0.4018	4000	4000	4000	0	0	1	-360	360	3
113	125	0.00087	0.0104	0.4018	4000	4000	4000	0	0	1	-360	360	3
125	126	0.00004	0.00089	0.8996	4000	4000	4000	0	0	1	-360	360	3
125	126	0.00004	0.00089	0.8996	4000	4000	4000	0	0	1	-360	360	3
125	127	0.00004	0.00089	0.8996	4000	4000	4000	0	0	1	-360	360	3
125	127	0.00004	0.00089	0.8996	4000	4000	4000	0	0	1	-360	360	3
125	128	0.00036	0.00758	0.7778	4000	4000	4000	0	0	1	-360	360	3
125	128	0.00036	0.00758	0.7778	4000	4000	4000	0	0	1	-360	360	3
97	129	0.00004	0.00923	0.0000	1500	1500	1500	0	0	1	-360	360	2
97	129	0.00004	0.00923	0.0000	1500	1500	1500	0	0	1	-360	360	2
100	112	0.00004	0.00923	0.0000	1500	1500	1500	0	0	1	-360	360	2
100	112	0.00004	0.00923	0.0000	1500	1500	1500	0	0	1	-360	360	2
106	130	0.00003	0.00853	0.0000	2100	2100	2100	0	0	1	-360	360	2
106	130	0.00003	0.00853	0.0000	2100	2100	2100	0	0	1	-360	360	2
107	131	0.00003	0.00853	0.0000	2100	2100	2100	0	0	1	-360	360	3
112	132	0.0015	0.0653	0.0000	600	600	600	0	0	1	-360	360	2
112	132	0.0015	0.0653	0.0000	600	600	600	0	0	1	-360	360	2
112	132	0.0015	0.0653	0.0000	600	600	600	0	0	1	-360	360	2
112	132	0.0015	0.0653	0.0000	600	600	600	0	0	1	-360	360	2
113	137	0.00003	0.00853	0.0000	2100	2100	2100	0	0	1	-360	360	2
113	137	0.00003	0.00853	0.0000	2100	2100	2100	0	0	1	-360	360	2
116	133	0.0009	0.0445	0.0000	600	600	600	0	0	1	-360	360	2
116	133	0.0009	0.0445	0.0000	600	600	600	0	0	1	-360	360	2
120	134	0.0018	0.0713	0.0000	600	600	600	0	0	1	-360	360	2
120	134	0.0018	0.0713	0.0000	600	600	600	0	0	1	-360	360	2
124	135	0.0015	0.0653	0.0000	600	600	600	0	0	1	-360	360	2
124	135	0.0015	0.0653	0.0000	600	600	600	0	0	1	-360	360	2
125	136	0.00003	0.00853	0.0000	2100	2100	2100	0	0	1	-360	360	2
125	136	0.00003	0.00853	0.0000	2100	2100	2100	0	0	1	-360	360	2
													
138	139	0.00005	0.001	0.4646	2000	2000	2000	0	0	1	-360	360	3
139	162	0.00015	0.00339	0.1968	2000	2000	2000	0	0	1	-360	360	3
139	162	0.00015	0.00339	0.1968	2000	2000	2000	0	0	1	-360	360	3
138	162	0.00022	0.00499	0.3081	2000	2000	2000	0	0	1	-360	360	3
138	162	0.00022	0.00499	0.3081	2000	2000	2000	0	0	1	-360	360	3
138	162	0.00022	0.00499	0.3081	2000	2000	2000	0	0	1	-360	360	3
140	141	0.00005	0.001	0.8291	2000	2000	2000	0	0	1	-360	360	3
140	162	0.00022	0.00499	0.3696	2000	2000	2000	0	0	1	-360	360	3
140	162	0.00022	0.00499	0.3696	2000	2000	2000	0	0	1	-360	360	3
141	162	0.0002	0.00449	0.6589	2000	2000	2000	0	0	1	-360	360	3
141	162	0.0002	0.00449	0.6589	2000	2000	2000	0	0	1	-360	360	3
142	143	0.00009	0.00192	1.0935	4000	4000	4000	0	0	1	-360	360	3
142	143	0.00009	0.00192	1.0935	4000	4000	4000	0	0	1	-360	360	3
142	143	0.00009	0.00192	1.0935	4000	4000	4000	0	0	1	-360	360	3
143	147	0.00016	0.00399	0.1261	4000	4000	4000	0	0	1	-360	360	3
143	147	0.00016	0.00399	0.1261	4000	4000	4000	0	0	1	-360	360	3
144	163	0.00021	0.00245	0.9790	700	700	700	0	0	1	-360	360	2
144	163	0.00021	0.00245	0.9790	700	700	700	0	0	1	-360	360	2
144	163	0.00021	0.00245	0.9790	700	700	700	0	0	1	-360	360	2
145	147	0.00004	0.00083	0.5728	4000	4000	4000	0	0	1	-360	360	3
145	147	0.00004	0.00083	0.5728	4000	4000	4000	0	0	1	-360	360	3
146	147	0.00004	0.00083	0.5728	4000	4000	4000	0	0	1	-360	360	3
146	147	0.00004	0.00083	0.5728	4000	4000	4000	0	0	1	-360	360	3
147	154	0.00012	0.00256	0.7825	4000	4000	4000	0	0	1	-360	360	3
147	154	0.00012	0.00256	0.7825	4000	4000	4000	0	0	1	-360	360	3
148	154	0.00001	0.0003	0.4925	4000	4000	4000	0	0	1	-360	360	3
148	149	0.00004	0.00077	0.7107	4000	4000	4000	0	0	1	-360	360	3
149	154	0.00005	0.00098	0.2219	4000	4000	4000	0	0	1	-360	360	3
150	154	0.0001	0.00209	0.1605	4000	4000	4000	0	0	1	-360	360	3
150	151	0.00004	0.00085	1.1288	4000	4000	4000	0	0	1	-360	360	3
151	154	0.0001	0.002	0.3991	4000	4000	4000	0	0	1	-360	360	3
152	154	0.00007	0.00153	0.7247	4000	4000	4000	0	0	1	-360	360	3
152	153	0.00006	0.00119	1.1103	4000	4000	4000	0	0	1	-360	360	3
153	154	0.00013	0.00268	0.2951	4000	4000	4000	0	0	1	-360	360	3
154	155	0.00042	0.00895	0.3027	4000	4000	4000	0	0	1	-360	360	3
154	155	0.00042	0.00895	0.3027	4000	4000	4000	0	0	1	-360	360	3
154	156	0.00014	0.00294	1.0795	4000	4000	4000	0	0	1	-360	360	3
154	156	0.00014	0.00294	1.0795	4000	4000	4000	0	0	1	-360	360	3
156	159	0.00008	0.0017	0.3869	4000	4000	4000	0	0	1	-360	360	3
156	159	0.00008	0.0017	0.3869	4000	4000	4000	0	0	1	-360	360	3
157	159	0.00002	0.00043	0.5170	4000	4000	4000	0	0	1	-360	360	3
157	159	0.00002	0.00043	0.5170	4000	4000	4000	0	0	1	-360	360	3
158	159	0.00007	0.00153	0.2377	4000	4000	4000	0	0	1	-360	360	3
158	159	0.00007	0.00153	0.2377	4000	4000	4000	0	0	1	-360	360	3
159	161	0.00008	0.0017	0.1961	4000	4000	4000	0	0	1	-360	360	3
159	161	0.00008	0.0017	0.1961	4000	4000	4000	0	0	1	-360	360	3
160	161	0.00002	0.00032	0.1115	4000	4000	4000	0	0	1	-360	360	3
160	161	0.00002	0.00032	0.1115	4000	4000	4000	0	0	1	-360	360	3
143	161	0.00021	0.00532	0.9292	4000	4000	4000	0	0	1	-360	360	3
143	161	0.00021	0.00532	0.9292	4000	4000	4000	0	0	1	-360	360	3
142	162	0	0.009	0.0000	2100	2100	2100	0	0	1	-360	360	3
142	162	0	0.009	0.0000	2100	2100	2100	0	0	1	-360	360	3
142	162	0	0.009	0.0000	2100	2100	2100	0	0	1	-360	360	3
147	163	0.00003	0.00853	0.0000	2100	2100	2100	0	0	1	-360	360	2
147	163	0.00003	0.00853	0.0000	2100	2100	2100	0	0	1	-360	360	2
													
211	165	0.00109	0.01112	0.6978	500	500	500	0	0	1	-360	360	2
212	166	0.0012	0.05106	0.1645	200	200	200	0	0	1	-360	360	2
166	167	0.00004	0.04	0.6211	200	200	200	0	0	1	-360	360	2
166	167	0.00004	0.04	0.6211	200	200	200	0	0	1	-360	360	2
166	167	0.00004	0.04	0.6211	200	200	200	0	0	1	-360	360	2
166	167	0.00004	0.04	0.6211	200	200	200	0	0	1	-360	360	2
167	168	0.00004	0.04	0.6211	200	200	200	0	0	1	-360	360	2
167	168	0.00004	0.04	0.6211	200	200	200	0	0	1	-360	360	2
167	168	0.00004	0.04	0.6211	200	200	200	0	0	1	-360	360	2
167	168	0.00004	0.04	0.6211	200	200	200	0	0	1	-360	360	2
212	168	0.00109	0.01112	0.8839	200	200	200	0	0	1	-360	360	2
211	169	0.00364	0.02941	0.3488	500	500	500	0	0	1	-360	360	2
211	170	0.00184	0.02258	1.1052	500	500	500	0	0	1	-360	360	2
164	171	0.00014	0.0029	0.7513	4000	4000	4000	0	0	1	-360	360	3
164	171	0.00014	0.0029	0.7513	4000	4000	4000	0	0	1	-360	360	3
213	172	0.00027	0.00369	0.2812	2000	2000	2000	0	0	1	-360	360	3
213	172	0.00027	0.00369	0.2812	2000	2000	2000	0	0	1	-360	360	3
213	173	0.00022	0.00431	0.3680	2000	2000	2000	0	0	1	-360	360	3
213	173	0.00022	0.00431	0.3680	2000	2000	2000	0	0	1	-360	360	3
213	174	0.0002	0.00344	1.0566	2000	2000	2000	0	0	1	-360	360	3
174	175	0.00013	0.0018	0.8346	2000	2000	2000	0	0	1	-360	360	3
213	175	0.0002	0.00449	0.8614	2000	2000	2000	0	0	1	-360	360	3
171	176	0.00014	0.00298	0.3414	4000	4000	4000	0	0	1	-360	360	3
171	176	0.00014	0.00298	0.3414	4000	4000	4000	0	0	1	-360	360	3
176	177	0.00037	0.00644	0.9512	4000	4000	4000	0	0	1	-360	360	3
176	177	0.00037	0.00644	0.9512	4000	4000	4000	0	0	1	-360	360	3
177	178	0.00076	0.01324	1.1379	4000	4000	4000	0	0	1	-360	360	3
177	178	0.00076	0.01324	1.1379	4000	4000	4000	0	0	1	-360	360	3
178	179	0.00012	0.00203	0.4370	4000	4000	4000	0	0	1	-360	360	3
178	180	0.00012	0.00203	0.4370	4000	4000	4000	0	0	1	-360	360	3
179	180	0.00002	0.0004	0.1635	4000	4000	4000	0	0	1	-360	360	3
180	181	0.00001	0.0001	0.8620	4000	4000	4000	0	0	1	-360	360	3
178	181	0.00012	0.00212	0.6844	4000	4000	4000	0	0	1	-360	360	3
178	182	0.00046	0.00794	0.6558	4000	4000	4000	0	0	1	-360	360	3
178	182	0.00046	0.00794	0.6558	4000	4000	4000	0	0	1	-360	360	3
182	183	0.00006	0.00097	1.0017	4000	4000	4000	0	0	1	-360	360	3
182	183	0.00006	0.00097	1.0017	4000	4000	4000	0	0	1	-360	360	3
182	184	0.00001	0.0001	0.4337	4000	4000	4000	0	0	1	-360	360	3
182	184	0.00001	0.0001	0.4337	4000	4000	4000	0	0	1	-360	360	3
182	184	0.00001	0.0001	0.4337	4000	4000	4000	0	0	1	-360	360	3
184	185	0.00006	0.0011	0.2154	4000	4000	4000	0	0	1	-360	360	3
185	186	0.00002	0.00026	0.2152	4000	4000	4000	0	0	1	-360	360	3
184	186	0.00006	0.0011	0.3834	4000	4000	4000	0	0	1	-360	360	3
184	187	0.00007	0.00124	0.6509	4000	4000	4000	0	0	1	-360	360	3
184	187	0.00007	0.00124	0.6509	4000	4000	4000	0	0	1	-360	360	3
184	188	0.00008	0.00132	0.8459	4000	4000	4000	0	0	1	-360	360	3
184	188	0.00008	0.00132	0.8459	4000	4000	4000	0	0	1	-360	360	3
184	189	0.00011	0.00185	0.4060	4000	4000	4000	0	0	1	-360	360	3
189	190	0.00004	0.00066	0.9929	4000	4000	4000	0	0	1	-360	360	3
184	190	0.00011	0.00199	1.0572	4000	4000	4000	0	0	1	-360	360	3
184	191	0	0.00001	0.7712	4000	4000	4000	0	0	1	-360	360	3
184	191	0	0.00001	0.7712	4000	4000	4000	0	0	1	-360	360	3
191	192	0	0.00001	0.7712	4000	4000	4000	0	0	1	-360	360	3
191	192	0	0.00001	0.7712	4000	4000	4000	0	0	1	-360	360	3
192	193	0	0.00298	0.7140	4000	4000	4000	0	0	1	-360	360	3
192	193	0	0.00298	0.7140	4000	4000	4000	0	0	1	-360	360	3
182	194	0.00041	0.00719	0.1641	4000	4000	4000	0	0	1	-360	360	3
182	194	0.00041	0.00719	0.1641	4000	4000	4000	0	0	1	-360	360	3
194	195	0.00015	0.00269	0.3993	4000	4000	4000	0	0	1	-360	360	3
194	195	0.00015	0.00269	0.3993	4000	4000	4000	0	0	1	-360	360	3
195	196	0	0.0001	0.3005	4000	4000	4000	0	0	1	-360	360	3
195	196	0	0.0001	0.3005	4000	4000	4000	0	0	1	-360	360	3
194	197	0.00036	0.00573	0.5131	4000	4000	4000	0	0	1	-360	360	3
194	197	0.00036	0.00573	0.5131	4000	4000	4000	0	0	1	-360	360	3
194	199	0.00018	0.00359	0.8107	4000	4000	4000	0	0	1	-360	360	3
194	199	0.00018	0.00359	0.8107	4000	4000	4000	0	0	1	-360	360	3
197	198	0.0003	0.00639	0.4340	4000	4000	4000	0	0	1	-360	360	3
198	199	0.0002	0.00426	0.2405	4000	4000	4000	0	0	1	-360	360	3
197	200	0.0003	0.006	0.8050	4000	4000	4000	0	0	1	-360	360	3
200	201	0	0.0002	0.6995	4000	4000	4000	0	0	1	-360	360	3
200	201	0	0.0002	0.6995	4000	4000	4000	0	0	1	-360	360	3
201	202	0	0.0002	0.6995	4000	4000	4000	0	0	1	-360	360	3
201	202	0	0.0002	0.6995	4000	4000	4000	0	0	1	-360	360	3
202	207	0.00079	0.01509	1.0535	4000	4000	4000	0	0	1	-360	360	3
202	207	0.00079	0.01509	1.0535	4000	4000	4000	0	0	1	-360	360	3
203	204	0.00042	0.00728	0.1346	4000	4000	4000	0	0	1	-360	360	3
203	205	0.00048	0.0083	0.1566	4000	4000	4000	0	0	1	-360	360	3
204	205	0.00066	0.01147	0.9453	4000	4000	4000	0	0	1	-360	360	3
205	206	0.00049	0.0086	0.5739	4000	4000	4000	0	0	1	-360	360	3
205	206	0.00049	0.0086	0.5739	4000	4000	4000	0	0	1	-360	360	3
206	207	0.00073	0.0127	0.9291	4000	4000	4000	0	0	1	-360	360	3
206	207	0.00073	0.0127	0.9291	4000	4000	4000	0	0	1	-360	360	3
207	208	0	0.0002	0.6590	4000	4000	4000	0	0	1	-360	360	3
207	208	0	0.0002	0.6590	4000	4000	4000	0	0	1	-360	360	3
208	209	0.00078	0.01415	1.0151	4000	4000	4000	0	0	1	-360	360	3
208	209	0.00078	0.01415	1.0151	4000	4000	4000	0	0	1	-360	360	3
199	209	0.00026	0.00525	0.7826	4000	4000	4000	0	0	1	-360	360	3
199	209	0.00026	0.00525	0.7826	4000	4000	4000	0	0	1	-360	360	3
209	210	0.00018	0.00359	0.1798	4000	4000	4000	0	0	1	-360	360	3
209	210	0.00018	0.00359	0.1798	4000	4000	4000	0	0	1	-360	360	3
171	210	0.00097	0.01688	0.5346	4000	4000	4000	0	0	1	-360	360	3
171	210	0.00097	0.01688	0.5346	4000	4000	4000	0	0	1	-360	360	3
164	211	0.00005	0.13472	0.0000	1500	1500	1500	0	0	1	-360	360	2
164	211	0.00005	0.13472	0.0000	1500	1500	1500	0	0	1	-360	360	2
165	212	0.0016	0.07517	0.0000	500	500	500	0	0	1	-360	360	2
171	213	0	0.009	0.0000	2100	2100	2100	0	0	1	-360	360	3
171	213	0	0.009	0.0000	2100	2100	2100	0	0	1	-360	360	3
171	213	0	0.009	0.0000	2100	2100	2100	0	0	1	-360	360	3
171	213	0	0.009	0.0000	2100	2100	2100	0	0	1	-360	360	3

];
mpc.candi_AC = [
%fbus	tbus	r	x	b	rateA	rateB	rateC	ratio	angle	status	angmin	angmax	Investment_cost(M$)	Idx(1:Tie Line,2:VRE integration System,3:Regional Transmission System)
1	6	0.00007	0.00141	1.09846	4000	4000	4000	0	0	1	-360	360	543	3
2	6	0.00012	0.00256	0.52008	4000	4000	4000	0	0	1	-360	360	503	3
3	6	0.00008	0.0017	0.24106	4000	4000	4000	0	0	1	-360	360	347	3
4	6	0.00008	0.0017	0.18846	4000	4000	4000	0	0	1	-360	360	561	3
5	6	0.00002	0.00034	0.44043	4000	4000	4000	0	0	1	-360	360	269	3
6	8	0.00024	0.00511	0.41681	4000	4000	4000	0	0	1	-360	360	415	3
8	14	0.00024	0.00511	0.25384	4000	4000	4000	0	0	1	-360	360	310	3
14	17	0.0001	0.0016	1.03213	4000	4000	4000	0	0	1	-360	360	486	3
16	38	0.0001	0.0017	0.55799	700	700	700	0	0	1	-360	360	100	3
37	16	0.00257	0.02025	0.95957	700	700	700	0	0	1	-360	360	118	3
17	19	0.0001	0.0016	1.03055	4000	4000	4000	0	0	1	-360	360	368	3
19	23	0	0.001	0.57659	4000	4000	4000	0	0	1	-360	360	493	3
19	30	0.00035	0.00746	0.75106	4000	4000	4000	0	0	1	-360	360	471	3
39	24	0.001	0.006	0.85617	700	700	700	0	0	1	-360	360	142	3
28	29	0.00007	0.00143	0.91433	4000	4000	4000	0	0	1	-360	360	447	3
30	33	0.00019	0.00409	0.92344	4000	4000	4000	0	0	1	-360	360	298	3
29	36	0.00025	0.005	0.97590	4000	4000	4000	0	0	1	-360	360	359	3
30	41	0.00003	0.00853	0.00000	2100	2100	2100	0	0	1	-360	360	31.5	3
84	49	0.00158	0.0085	0.55693	700	700	700	0	0	1	-360	360	100	3
48	49	0.00258	0.01535	0.74826	700	700	700	0	0	1	-360	360	145	3
48	85	0.0006	0.004	1.00706	700	700	700	0	0	1	-360	360	103	3
53	54	0.00052	0.00408	1.13632	700	700	700	0	0	1	-360	360	111	3
54	86	0.0031	0.02	0.38499	700	700	700	0	0	1	-360	360	107	3
46	84	0.00004	0.00923	0.00000	1500	1500	1500	0	0	1	-360	360	19.5	3
50	85	0.00004	0.00923	0.00000	1500	1500	1500	0	0	1	-360	360	19.5	3
95	129	0.00028	0.00169	0.12741	700	700	700	0	0	1	-360	360	120	3
98	99	0.00015	0.00316	0.10772	4000	4000	4000	0	0	1	-360	360	409	3
141	162	0.0002	0.00449	0.65890	2000	2000	2000	0	0	1	-360	360	266	3
148	154	0.00001	0.0003	0.49254	4000	4000	4000	0	0	1	-360	360	571	3
150	154	0.0001	0.00209	0.16054	4000	4000	4000	0	0	1	-360	360	512	3
151	154	0.0001	0.002	0.39906	4000	4000	4000	0	0	1	-360	360	425	3
152	154	0.00007	0.00153	0.72472	4000	4000	4000	0	0	1	-360	360	300	3
154	156	0.00014	0.00294	1.07954	4000	4000	4000	0	0	1	-360	360	381	3
156	159	0.00008	0.0017	0.38688	4000	4000	4000	0	0	1	-360	360	338	3
178	182	0.00046	0.00794	0.65583	4000	4000	4000	0	0	1	-360	360	251	3
184	191	0	0.00794	0.77124	4000	4000	4000	0	0	1	-360	360	371	3
191	192	0	0.00794	0.77124	4000	4000	4000	0	0	1	-360	360	263	3
192	193	0	0.00298	0.71395	4000	4000	4000	0	0	1	-360	360	253	3
182	194	0.00041	0.00719	0.16408	4000	4000	4000	0	0	1	-360	360	294	3
197	200	0.0003	0.006	0.80504	4000	4000	4000	0	0	1	-360	360	540	3
171	210	0.00097	0.01688	0.53458	4000	4000	4000	0	0	1	-360	360	446	3
107	131	0.00003	0.00853	0.00000	2100	2100	2100	0	0	1	-360	360	31.5	3
9	37	0.00082	0.00487	1.00229	700	700	700	0	0	1	-360	360	121	2
9	10	0.00082	0.00487	1.00229	700	700	700	0	0	1	-360	360	112	2
10	37	0.0016	0.01094	0.68122	700	700	700	0	0	1	-360	360	138	2
10	11	0.00182	0.01103	0.64123	700	700	700	0	0	1	-360	360	129	2
11	37	0.0012	0.00707	0.44722	700	700	700	0	0	1	-360	360	114	2
15	38	0.0001	0.0017	0.55799	700	700	700	0	0	1	-360	360	110	2
37	20	0.004	0.025	1.04276	700	700	700	0	0	1	-360	360	137	2
20	21	0.00383	0.02796	0.62903	700	700	700	0	0	1	-360	360	112	2
21	22	0.0006	0.0037	0.74345	700	700	700	0	0	1	-360	360	112	2
22	39	0.00465	0.02765	0.65848	700	700	700	0	0	1	-360	360	117	2
25	40	0.00257	0.03644	0.54778	700	700	700	0	0	1	-360	360	146	2
14	37	0.00003	0.00853	0.00000	2100	2100	2100	0	0	1	-360	360	31.5	2
17	38	0.00003	0.00853	0.00000	2100	2100	2100	0	0	1	-360	360	31.5	2
23	39	0.00003	0.00853	0.00000	2100	2100	2100	0	0	1	-360	360	31.5	2
29	40	0.00003	0.00853	0.00000	2100	2100	2100	0	0	1	-360	360	31.5	2
55	56	0.00168	0.00999	0.63324	700	700	700	0	0	1	-360	360	92	2
56	86	0.00348	0.02071	0.90103	700	700	700	0	0	1	-360	360	104	2
60	61	0.00035	0.00251	0.72001	700	700	700	0	0	1	-360	360	98	2
60	87	0.00035	0.00251	0.72001	700	700	700	0	0	1	-360	360	142	2
61	62	0.00035	0.00251	0.72001	700	700	700	0	0	1	-360	360	124	2
62	64	0.00035	0.00251	0.72001	700	700	700	0	0	1	-360	360	140	2
87	88	0.00035	0.00251	0.72001	700	700	700	0	0	1	-360	360	115	2
63	64	0.00035	0.00251	0.72001	700	700	700	0	0	1	-360	360	94	2
64	88	0.001	0.007	0.68158	700	700	700	0	0	1	-360	360	142	2
68	89	0.0015	0.00961	0.41519	700	700	700	0	0	1	-360	360	130	2
69	89	0.00122	0.01009	0.52146	700	700	700	0	0	1	-360	360	134	2
70	89	0.00148	0.00877	0.97503	700	700	700	0	0	1	-360	360	121	2
71	89	0.0018	0.01072	0.52381	700	700	700	0	0	1	-360	360	122	2
73	90	0.00167	0.01045	0.24727	700	700	700	0	0	1	-360	360	126	2
74	90	0.00035	0.00251	0.37314	700	700	700	0	0	1	-360	360	125	2
75	90	0.00139	0.01005	0.19116	700	700	700	0	0	1	-360	360	142	2
76	90	0.0016	0.0095	0.55087	700	700	700	0	0	1	-360	360	123	2
77	90	0.00156	0.0113	0.37015	700	700	700	0	0	1	-360	360	110	2
78	90	0.00156	0.0113	0.37015	700	700	700	0	0	1	-360	360	145	2
79	90	0.0011	0.00927	0.54610	700	700	700	0	0	1	-360	360	116	2
80	90	0.000164	0.000945	0.22517	700	700	700	0	0	1	-360	360	125	2
82	91	0.00053	0.00317	0.92432	700	700	700	0	0	1	-360	360	95	2
57	86	0.00003	0.00853	0.00000	2100	2100	2100	0	0	1	-360	360	31.5	2
65	88	0.00003	0.00853	0.00000	2100	2100	2100	0	0	1	-360	360	31.5	2
72	89	0.00003	0.00853	0.00000	2100	2100	2100	0	0	1	-360	360	31.5	2
81	90	0.00003	0.00853	0.00000	2100	2100	2100	0	0	1	-360	360	31.5	2
83	91	0.00003	0.00853	0.00000	2100	2100	2100	0	0	1	-360	360	31.5	2
96	129	0.00028	0.03681	1.10241	700	700	700	0	0	1	-360	360	142	2
101	130	0.0003	0.0024	0.32901	700	700	700	0	0	1	-360	360	101	2
102	130	0.0003	0.0024	0.32901	700	700	700	0	0	1	-360	360	129	2
103	130	0.0003	0.0024	0.32901	700	700	700	0	0	1	-360	360	103	2
104	130	0.00082	0.00401	0.48941	700	700	700	0	0	1	-360	360	107	2
105	130	0.00028	0.03681	0.99920	700	700	700	0	0	1	-360	360	119	2
109	132	0.01803	0.0556	1.05455	200	200	200	0	0	1	-360	360	23	2
110	112	0.0004	0.0034	0.44920	700	700	700	0	0	1	-360	360	98	2
111	112	0.0026	0.025	1.04957	700	700	700	0	0	1	-360	360	144	2
114	133	0.0062	0.0127	0.15118	200	200	200	0	0	1	-360	360	22	2
115	133	0.00348	0.00748	0.35358	200	200	200	0	0	1	-360	360	25	2
116	120	0.00459	0.04329	0.35530	700	700	700	0	0	1	-360	360	127	2
117	134	0.00109	0.00534	0.26187	200	200	200	0	0	1	-360	360	25	2
118	134	0.00512	0.01998	1.10424	200	200	200	0	0	1	-360	360	27	2
119	120	0.00003	0.0024	1.08244	700	700	700	0	0	1	-360	360	126	2
120	124	0.0032	0.02949	0.95965	700	700	700	0	0	1	-360	360	101	2
121	124	0.00082	0.00401	0.86467	700	700	700	0	0	1	-360	360	123	2
122	135	0.0033	0.0116	0.28460	200	200	200	0	0	1	-360	360	20	2
123	124	0.00406	0.01097	0.83460	700	700	700	0	0	1	-360	360	117	2
124	136	0	0.000298	0.75652	700	700	700	0	0	1	-360	360	136	2
97	129	0.00004	0.00923	0.00000	1500	1500	1500	0	0	1	-360	360	19.5	2
100	112	0.00004	0.00923	0.00000	1500	1500	1500	0	0	1	-360	360	19.5	2
106	130	0.00003	0.00853	0.00000	2100	2100	2100	0	0	1	-360	360	31.5	2
112	132	0.0015	0.0653	0.00000	500	500	500	0	0	1	-360	360	5	2
113	137	0.00003	0.00853	0.00000	2100	2100	2100	0	0	1	-360	360	31.5	2
116	133	0.0009	0.0445	0.00000	500	500	500	0	0	1	-360	360	5	2
120	134	0.0018	0.0713	0.00000	500	500	500	0	0	1	-360	360	5	2
124	135	0.0015	0.0653	0.00000	500	500	500	0	0	1	-360	360	5	2
125	136	0.00003	0.00853	0.00000	2100	2100	2100	0	0	1	-360	360	31.5	2
144	163	0.00021	0.00245	0.97903	700	700	700	0	0	1	-360	360	133	2
147	163	0.00003	0.00853	0.00000	2100	2100	2100	0	0	1	-360	360	31.5	2
211	165	0.00109	0.01112	0.69783	500	500	500	0	0	1	-360	360	62	2
212	166	0.0012	0.05106	0.16447	200	200	200	0	0	1	-360	360	19	2
166	167	0.00004	0.04	0.62110	200	200	200	0	0	1	-360	360	22	2
167	168	0.00004	0.04	0.62110	200	200	200	0	0	1	-360	360	24	2
212	168	0.00109	0.01112	0.88395	200	200	200	0	0	1	-360	360	22	2
211	169	0.00364	0.02941	0.34878	500	500	500	0	0	1	-360	360	88	2
211	170	0.00184	0.02258	1.10521	500	500	500	0	0	1	-360	360	63	2
164	211	0.00005	0.13472	0.00000	1500	1500	1500	0	0	1	-360	360	19.5	2
165	212	0.0016	0.07517	0.00000	500	500	500	0	0	1	-360	360	5	2
33	44	0.00035	0.0072	0.18197	4000	4000	4000	0	0	1	-360	360	288	1
34	45	0.00044	0.00905	0.62522	4000	4000	4000	0	0	1	-360	360	472	1
46	97	0.00029	0.00062	0.17779	4000	4000	4000	0	0	1	-360	360	340	1
44	155	0.00025	0.00524	0.10356	4000	4000	4000	0	0	1	-360	360	443	1
50	156	0.00033	0.00703	0.10137	4000	4000	4000	0	0	1	-360	360	396	1
51	92	0.0002	0.00564	0.24961	4000	4000	4000	0	0	1	-360	360	478	1
81	176	0.00082	0.01555	0.28364	4000	4000	4000	0	0	1	-360	360	297	1
83	164	0.00057	0.01219	0.72883	4000	4000	4000	0	0	1	-360	360	424	1
83	128	0.00066	0.01402	1.08635	4000	4000	4000	0	0	1	-360	360	415	1

];
mpc.candi_DC = [
% %fbus	tbus capacity  investment_cost(M$) Idx(1:Tie Line,2:VRE integration System,3:Regional Transmission System)
14	17	3000	892	3
14	19	3000	976	3
17	23	3000	882	3
19	29	3000	932	3
23	30	3000	862	3
29	34	3000	887	3
29	33	3000	932	3
30	36	3000	982	3
30	34	3000	882	3
33	36	3000	967	3
61	65	3000	961	2
120	125	3000	866	2
113	120	3000	932	2
143	154	3000	998	3
143	159	3000	877	3
143	156	3000	969	3
147	156	3000	954	3
147	159	3000	947	3
147	161	3000	933	3
154	159	3000	943	3
154	161	3000	923	3
171	205	3000	871	3
171	207	3000	903	3
171	209	3000	942	3
171	202	3000	952	3
171	197	3000	997	3
176	182	3000	998	3
176	194	3000	874	3
176	199	3000	956	3
176	209	3000	949	3
176	207	3000	929	3
176	197	3000	912	3
34	65	3000	1008	1
34	81	3000	1005	1
34	113	3000	1018	1
34	125	3000	1018	1
];

mpc.Storage = [
 % bus Type(1-PHS,2-Lithium-ion battery,3-CAES)	Capacity(MW)	FOR(%)	MTTR/h	MTTF/h	Scheduled Maintenance(Weeks/Year)	Unit capaticy /MW	Unit number	capital cost (M$/MWh)	efficiency	Energy/power ratio(h)	lifetime
...